Version 4.1
SHEET 1 1196 708
WIRE -288 48 -320 48
WIRE -176 48 -288 48
WIRE -48 48 -176 48
WIRE -288 64 -288 48
WIRE -656 112 -656 64
WIRE -288 144 -288 128
WIRE -176 192 -176 48
WIRE -48 192 -176 192
WIRE 640 192 496 192
WIRE 832 192 640 192
WIRE 1024 192 832 192
WIRE -656 224 -656 192
WIRE 832 224 832 192
WIRE 640 272 640 192
WIRE 640 272 496 272
WIRE 832 336 832 304
WIRE 640 352 640 336
WIRE 192 384 192 352
WIRE 288 384 288 352
WIRE 64 400 64 352
WIRE 64 400 -16 400
WIRE -176 464 -176 192
WIRE 416 464 416 352
WIRE 416 464 -176 464
WIRE -16 496 -16 400
WIRE -16 496 -64 496
WIRE 32 496 -16 496
WIRE -64 544 -64 496
WIRE 32 544 32 496
WIRE -64 656 -64 608
WIRE -16 656 -64 656
WIRE 32 656 32 624
WIRE 32 656 -16 656
WIRE -16 688 -16 656
FLAG 640 352 0
FLAG 1024 192 5V_mixer
IOPIN 1024 192 Out
FLAG -320 48 5.5V
IOPIN -320 48 In
FLAG -288 144 0
FLAG 288 384 0
FLAG 192 384 0
FLAG -656 224 0
FLAG -656 64 5.5V
IOPIN -656 64 Out
FLAG -16 688 0
FLAG 832 336 0
SYMBOL PowerProducts\\LT3042 192 192 R0
SYMATTR InstName U1
SYMBOL cap 624 272 R0
SYMATTR InstName C1
SYMATTR Value 4.7”
SYMBOL cap -304 64 R0
SYMATTR InstName C2
SYMATTR Value 4.7”
SYMBOL cap -80 544 R0
SYMATTR InstName C3
SYMATTR Value .47”
SYMBOL res 16 528 R0
SYMATTR InstName R1
SYMATTR Value 49.9k
SYMBOL voltage -656 96 R0
WINDOW 123 0 0 Left 0
WINDOW 39 0 0 Left 0
SYMATTR InstName V1
SYMATTR Value 5.5
SYMBOL res 848 320 R180
WINDOW 0 36 76 Left 2
WINDOW 3 36 40 Left 2
SYMATTR InstName R2
SYMATTR Value 100
TEXT 32 -256 Left 2 !.tran 0 1 0 5u startup
