Version 4.1
SHEET 1 2160 1332
WIRE 80 -208 80 -256
WIRE 192 -208 192 -256
WIRE 304 -208 304 -256
WIRE 80 -64 80 -128
WIRE 192 -64 192 -128
WIRE 304 -64 304 -128
WIRE 432 16 400 16
WIRE 720 16 432 16
WIRE 432 48 432 16
WIRE 720 64 720 16
WIRE 1504 96 1344 96
WIRE 624 128 576 128
WIRE 432 144 432 112
WIRE 1392 144 1392 48
WIRE 880 160 816 160
WIRE 1040 160 960 160
WIRE 1168 160 1040 160
WIRE 1264 160 1168 160
WIRE 1344 160 1344 96
WIRE 1360 160 1344 160
WIRE 1504 176 1504 96
WIRE 1504 176 1424 176
WIRE 1824 176 1504 176
WIRE 240 192 144 192
WIRE 1040 192 1040 160
WIRE 1168 192 1168 160
WIRE 1264 192 1264 160
WIRE 1360 192 1264 192
WIRE 0 240 -48 240
WIRE 624 256 592 256
WIRE 1392 272 1392 208
WIRE 144 288 144 272
WIRE 224 288 144 288
WIRE 144 304 144 288
WIRE 1040 304 1040 256
WIRE 1168 304 1168 272
WIRE 224 320 224 288
WIRE -1088 368 -1088 320
WIRE 0 368 0 320
WIRE -448 384 -448 336
WIRE 240 384 144 384
WIRE 720 400 720 368
WIRE -1088 480 -1088 448
WIRE -448 496 -448 464
WIRE 432 496 400 496
WIRE 720 496 432 496
WIRE 432 528 432 496
WIRE 720 544 720 496
WIRE 1504 576 1344 576
WIRE 624 608 576 608
WIRE 432 624 432 592
WIRE 1392 624 1392 528
WIRE 880 640 816 640
WIRE 1040 640 960 640
WIRE 1168 640 1040 640
WIRE 1264 640 1168 640
WIRE 1344 640 1344 576
WIRE 1360 640 1344 640
WIRE 1504 656 1504 576
WIRE 1504 656 1424 656
WIRE 1824 656 1504 656
WIRE 1040 672 1040 640
WIRE 1168 672 1168 640
WIRE 1264 672 1264 640
WIRE 1360 672 1264 672
WIRE 624 736 592 736
WIRE 1392 768 1392 688
WIRE 1040 784 1040 736
WIRE 1168 784 1168 752
WIRE -496 832 -496 640
WIRE 720 880 720 848
WIRE -496 976 -496 912
WIRE -496 1088 -496 1056
FLAG 304 -256 5
IOPIN 304 -256 Out
FLAG 304 -64 0
FLAG 432 144 0
FLAG 400 16 5
IOPIN 400 16 In
FLAG 1040 304 0
FLAG -448 496 0
FLAG -448 336 CLK_180
IOPIN -448 336 Out
FLAG 1168 304 0
FLAG 592 256 CLK_0
IOPIN 592 256 In
FLAG 720 400 0
FLAG 576 128 RF+
FLAG 0 368 0
FLAG 240 192 RF+
FLAG -48 240 Ant
FLAG 432 624 0
FLAG 400 496 5
IOPIN 400 496 In
FLAG 1040 784 0
FLAG 1824 656 baseband_180
IOPIN 1824 656 Out
FLAG 1168 784 0
FLAG 592 736 CLK_0
IOPIN 592 736 In
FLAG 720 880 0
FLAG 576 608 RF-
FLAG -1088 480 0
FLAG -1088 320 CLK_0
IOPIN -1088 320 Out
FLAG 192 -256 -12
IOPIN 192 -256 Out
FLAG 192 -64 0
FLAG 80 -256 12
IOPIN 80 -256 Out
FLAG 80 -64 0
FLAG 1392 48 12
IOPIN 1392 48 Out
FLAG 1392 528 12
IOPIN 1392 528 Out
FLAG 1392 272 -12
IOPIN 1392 272 Out
FLAG 1392 768 -12
IOPIN 1392 768 Out
FLAG -496 1088 0
FLAG -496 640 Ant
FLAG 544 192 0
FLAG 544 672 0
FLAG 240 384 RF-
FLAG 224 320 0
FLAG 1824 176 baseband_0
IOPIN 1824 176 Out
SYMBOL voltage 304 -224 R0
WINDOW 123 0 0 Left 0
WINDOW 39 0 0 Left 0
SYMATTR InstName V1
SYMATTR Value 5
SYMBOL cap 416 48 R0
SYMATTR InstName C1
SYMATTR Value 10Á
SYMBOL cap 1024 192 R0
SYMATTR InstName C3
SYMATTR Value 4.7n
SYMBOL voltage -448 368 R0
WINDOW 3 24 93 Left 2
WINDOW 123 0 0 Left 0
WINDOW 39 0 0 Left 0
SYMATTR Value PULSE(0 5 {Th} 5n 5n {Th} {T})
SYMATTR InstName V2
SYMBOL res 1152 176 R0
SYMATTR InstName R2
SYMATTR Value 100Meg
SYMBOL Switches\\ADG719 720 208 R0
SYMATTR InstName U3
SYMBOL ind 160 176 M0
SYMATTR InstName Ls1
SYMATTR Value 1Á
SYMATTR Type ind
SYMATTR SpiceLine Rser=1m
SYMBOL ind -16 336 M180
WINDOW 0 36 80 Left 2
WINDOW 3 36 40 Left 2
SYMATTR InstName Lp
SYMATTR Value 4Á
SYMATTR Type ind
SYMATTR SpiceLine Rser=1m
SYMBOL cap 416 528 R0
SYMATTR InstName C2
SYMATTR Value 10Á
SYMBOL cap 1024 672 R0
SYMATTR InstName C4
SYMATTR Value 4.7n
SYMBOL res 1152 656 R0
SYMATTR InstName R1
SYMATTR Value 100Meg
SYMBOL Switches\\ADG719 720 688 R0
SYMATTR InstName U1
SYMBOL voltage -1088 352 R0
WINDOW 3 24 93 Left 2
WINDOW 123 0 0 Left 0
WINDOW 39 0 0 Left 0
SYMATTR Value PULSE(0 5 0 5n 5n {Th} {T})
SYMATTR InstName V5
SYMBOL voltage 192 -224 R0
WINDOW 123 0 0 Left 0
WINDOW 39 0 0 Left 0
SYMATTR InstName V6
SYMATTR Value -12
SYMBOL voltage 80 -224 R0
WINDOW 123 0 0 Left 0
WINDOW 39 0 0 Left 0
SYMATTR InstName V7
SYMATTR Value 12
SYMBOL bv -496 960 R0
SYMATTR InstName B1
SYMATTR Value V={Vpk*sin(2*pi*(fLO+fa)*time)}
SYMBOL res -512 816 R0
SYMATTR InstName R3
SYMATTR Value 50
SYMBOL OpAmps\\UniversalOpAmp 1392 176 R0
SYMATTR InstName U5
SYMBOL OpAmps\\UniversalOpAmp 1392 656 R0
SYMATTR InstName U6
SYMBOL res 640 176 R90
WINDOW 0 0 56 VBottom 2
WINDOW 3 32 56 VTop 2
SYMATTR InstName R4
SYMATTR Value 100
SYMBOL res 640 656 R90
WINDOW 0 0 56 VBottom 2
WINDOW 3 32 56 VTop 2
SYMATTR InstName R5
SYMATTR Value 100
SYMBOL res 976 144 R90
WINDOW 0 0 56 VBottom 2
WINDOW 3 32 56 VTop 2
SYMATTR InstName R6
SYMATTR Value 47
SYMBOL res 976 624 R90
WINDOW 0 0 56 VBottom 2
WINDOW 3 32 56 VTop 2
SYMATTR InstName R7
SYMATTR Value 47
SYMBOL ind 160 288 M0
SYMATTR InstName Ls2
SYMATTR Value 1Á
SYMATTR Type ind
SYMATTR SpiceLine Rser=1m
TEXT 32 120 Left 2 !K Lp Ls1 Ls2 1
TEXT 592 -112 Left 2 !.options method=gear
TEXT 592 -288 Left 2 !; ===== LO PARAMETERS =====\n.param fLO = 3.5Meg\n.param fa = 1k\n.param T   = 1/fLO\n.param Th  = T/2
TEXT 592 -336 Left 2 !.save V(ant) V(rf+) V(rf-) V(baseband_0) V(baseband_180) V(clk_0) V(clk_180)
TEXT 944 -256 Left 2 ;;======= Amplitude Parameters =======\n.param Pin_dBm = -73\n.param Rsrc = 50\n.param Pwatts = 10^((Pin_dBm-30)/10)\n.param Vrms = sqrt(Pwatts*Rsrc)\n.param Vpk = sqrt(2)*Vrms
TEXT 1688 -176 Left 2 !;.op\n;meas op VPK_FIND FIND V(VPK_NODE)
TEXT 1680 -208 Left 2 !.tran 0 2m 0 10n
TEXT 944 -80 Left 2 !.param Vpk = 70u
