Version 4.1
SHEET 1 2160 2448
WIRE 1984 -496 1808 -496
WIRE 1808 -448 1808 -496
WIRE 1872 -448 1808 -448
WIRE 1984 -432 1984 -496
WIRE 1984 -432 1936 -432
WIRE 2048 -432 1984 -432
WIRE 1504 -416 832 -416
WIRE 1600 -416 1504 -416
WIRE 1872 -416 1600 -416
WIRE 1504 -400 1504 -416
WIRE 1600 -400 1600 -416
WIRE 1984 -400 1808 -400
WIRE 1808 -352 1808 -400
WIRE 1872 -352 1808 -352
WIRE 1984 -336 1984 -400
WIRE 1984 -336 1936 -336
WIRE 2048 -336 1984 -336
WIRE 1872 -320 1776 -320
WIRE 1504 -304 1504 -336
WIRE 1600 -304 1600 -320
WIRE 1504 -272 816 -272
WIRE 1600 -272 1504 -272
WIRE 1776 -272 1776 -320
WIRE 1776 -272 1600 -272
WIRE 1504 -256 1504 -272
WIRE 1600 -256 1600 -272
WIRE -80 -240 -176 -240
WIRE 0 -240 -80 -240
WIRE -80 -208 -80 -240
WIRE 1504 -160 1504 -192
WIRE 1600 -160 1600 -176
WIRE 224 -144 224 -160
WIRE -176 -112 -176 -240
WIRE -80 -112 -80 -144
WIRE 1968 -48 1792 -48
WIRE 224 -32 224 -64
WIRE -176 0 -176 -32
WIRE 1792 0 1792 -48
WIRE 1856 0 1792 0
WIRE 1968 16 1968 -48
WIRE 1968 16 1920 16
WIRE 2032 16 1968 16
WIRE 1488 32 1408 32
WIRE 1584 32 1488 32
WIRE 1856 32 1584 32
WIRE 1040 48 960 48
WIRE 1056 48 1056 16
WIRE 1088 48 1056 48
WIRE 1264 48 1232 48
WIRE 1488 48 1488 32
WIRE 1584 48 1584 32
WIRE 1968 48 1792 48
WIRE 1040 80 1040 48
WIRE 1088 80 1040 80
WIRE 1280 80 1232 80
WIRE 1792 96 1792 48
WIRE 1856 96 1792 96
WIRE 832 112 832 -416
WIRE 1088 112 832 112
WIRE 1312 112 1232 112
WIRE 1968 112 1968 48
WIRE 1968 112 1920 112
WIRE 2032 112 1968 112
WIRE 1856 128 1760 128
WIRE 1088 144 1056 144
WIRE 1440 144 1232 144
WIRE 1488 144 1488 112
WIRE 1584 144 1584 128
WIRE 1088 176 928 176
WIRE 1296 176 1232 176
WIRE 1440 176 1440 144
WIRE 1488 176 1440 176
WIRE 1584 176 1488 176
WIRE 1760 176 1760 128
WIRE 1760 176 1584 176
WIRE 1488 192 1488 176
WIRE 1584 192 1584 176
WIRE 1088 208 960 208
WIRE 1312 208 1232 208
WIRE 816 240 816 -272
WIRE 960 240 960 208
WIRE 960 240 816 240
WIRE 1088 240 1072 240
WIRE 1408 240 1408 32
WIRE 1408 240 1232 240
WIRE -192 272 -192 256
WIRE 1072 272 1072 240
WIRE 384 288 384 272
WIRE 1488 288 1488 256
WIRE 1584 288 1584 272
WIRE -192 384 -192 352
WIRE 384 400 384 368
WIRE -192 592 -192 576
WIRE 384 592 384 576
WIRE -192 704 -192 672
WIRE 384 704 384 672
FLAG -176 0 0
FLAG 384 400 0
FLAG 224 -32 0
FLAG 0 -240 5
IOPIN 0 -240 Out
FLAG 224 -160 RF
IOPIN 224 -160 Out
FLAG 960 48 RF
IOPIN 960 48 In
FLAG -192 576 CLK180
IOPIN -192 576 Out
FLAG 1056 16 CLK0
IOPIN 1056 16 In
FLAG 1072 272 0
FLAG 1056 144 CLK90
IOPIN 1056 144 In
FLAG -80 -112 0
FLAG 928 176 RF
IOPIN 928 176 In
FLAG -192 704 0
FLAG 384 272 CLK90
IOPIN 384 272 Out
FLAG 1504 -304 0
FLAG 1600 -304 0
FLAG 1504 -160 0
FLAG 1600 -160 0
FLAG 2048 -432 BB_0
FLAG 2048 -336 BB_90
FLAG 1488 144 0
FLAG 1584 144 0
FLAG 1488 288 0
FLAG 1584 288 0
FLAG 2032 16 BB_180
FLAG 2032 112 BB_270
FLAG -192 256 CLK0
IOPIN -192 256 Out
FLAG -192 384 0
FLAG 384 576 CLK270
IOPIN 384 576 Out
FLAG 384 704 0
FLAG 1296 176 CLK180
IOPIN 1296 176 Out
FLAG 1264 48 5
IOPIN 1264 48 Out
FLAG 1280 80 CLK270
IOPIN 1280 80 Out
FLAG 1312 208 RF
IOPIN 1312 208 In
FLAG 1312 112 RF
IOPIN 1312 112 In
SYMBOL sn74cbt3125casy 1184 112 R0
SYMATTR InstName U4
SYMBOL voltage -176 -128 R0
WINDOW 123 0 0 Left 0
WINDOW 39 0 0 Left 0
SYMATTR InstName V1
SYMATTR Value 5
SYMBOL voltage 384 272 R0
WINDOW 123 0 0 Left 0
WINDOW 39 0 0 Left 0
SYMATTR InstName V3
SYMATTR Value PULSE(0 5 {T/4} 1n 1n {T/4} {T})
SYMBOL cap -96 -208 R0
SYMATTR InstName C1
SYMATTR Value 10µ
SYMBOL voltage -192 576 R0
WINDOW 123 0 0 Left 0
WINDOW 39 0 0 Left 0
SYMATTR InstName V4
SYMATTR Value PULSE(0 5 {T/2} 1n 1n {T/4} {T})
SYMBOL OpAmps\\opamp 1904 -496 R0
SYMATTR InstName U1
SYMBOL OpAmps\\opamp 1904 -400 R0
SYMATTR InstName U2
SYMBOL cap 1488 -400 R0
SYMATTR InstName C2
SYMATTR Value 47n
SYMBOL res 1584 -416 R0
SYMATTR InstName R3
SYMATTR Value 100Meg
SYMBOL cap 1488 -256 R0
SYMATTR InstName C3
SYMATTR Value 47n
SYMBOL res 1584 -272 R0
SYMATTR InstName R4
SYMATTR Value 100Meg
SYMBOL bv 224 -160 R0
SYMATTR InstName B1
SYMATTR Value V={Vpk*sin(2*pi*(fLO+fa)*time)}
SYMBOL OpAmps\\opamp 1888 -48 R0
SYMATTR InstName U3
SYMBOL OpAmps\\opamp 1888 48 R0
SYMATTR InstName U5
SYMBOL cap 1472 48 R0
SYMATTR InstName C4
SYMATTR Value 47n
SYMBOL res 1568 32 R0
SYMATTR InstName R1
SYMATTR Value 100Meg
SYMBOL cap 1472 192 R0
SYMATTR InstName C5
SYMATTR Value 47n
SYMBOL res 1568 176 R0
SYMATTR InstName R2
SYMATTR Value 100Meg
SYMBOL voltage -192 256 R0
WINDOW 123 0 0 Left 0
WINDOW 39 0 0 Left 0
SYMATTR InstName V2
SYMATTR Value PULSE(0 5 0 1n 1n {T/4} {T})
SYMBOL voltage 384 576 R0
WINDOW 123 0 0 Left 0
WINDOW 39 0 0 Left 0
SYMATTR InstName V5
SYMATTR Value PULSE(0 5 {3*T/4} 1n 1n {T/4} {T})
TEXT 568 -496 Left 2 !.tran 0 4m 0 2n
TEXT 568 -456 Left 2 !.options method=gear
TEXT 568 -520 Left 2 !.include sn74cbt3125c.sub
TEXT 576 -576 Left 2 !.lib opamp.sub
TEXT 576 -824 Left 2 !; ===== LO PARAMETERS =====\n.param fLO=10Meg\n.param fa = 1k\n.param T   = 1/fLO\n.param Th  = T/2
TEXT 1032 -824 Left 2 !.param Vpk=4
TEXT -808 -496 Left 2 ;0, 45, 90, 135, 180, 225, 270 315
