Version 4.1
SHEET 1 1048 1332
WIRE -448 -32 -448 -80
WIRE 176 -32 -112 -32
WIRE -112 0 -112 -32
WIRE 176 16 176 -32
WIRE 608 48 464 48
WIRE 736 48 608 48
WIRE 832 48 736 48
WIRE 80 80 -16 80
WIRE 608 80 608 48
WIRE 736 80 736 48
WIRE -112 96 -112 64
WIRE -448 112 -448 48
WIRE 464 112 464 48
WIRE 464 112 272 112
WIRE -16 128 -16 80
WIRE -16 128 -96 128
WIRE 80 144 16 144
WIRE 16 160 16 144
WIRE 608 192 608 144
WIRE 736 192 736 160
WIRE -96 208 -96 128
WIRE -96 208 -176 208
WIRE 80 208 48 208
WIRE 176 352 176 320
WIRE -448 384 -448 336
WIRE -448 496 -448 464
WIRE -48 800 -48 704
WIRE -688 816 -688 736
WIRE -352 816 -352 736
WIRE -688 928 -688 896
WIRE -352 928 -352 896
WIRE -48 928 -48 880
FLAG -448 -80 5
IOPIN -448 -80 Out
FLAG -448 112 0
FLAG -112 96 0
FLAG -112 -32 5
IOPIN -112 -32 In
FLAG 608 192 0
FLAG 832 48 baseband_0
IOPIN 832 48 Out
FLAG -448 496 0
FLAG -448 336 CLK_0
IOPIN -448 336 Out
FLAG -688 928 0
FLAG -688 736 carrier
FLAG 736 192 0
FLAG -352 928 0
FLAG -352 736 audio
FLAG -48 928 0
FLAG -48 704 RF+
FLAG 48 208 CLK_0
IOPIN 48 208 In
FLAG 176 352 0
FLAG 16 160 0
FLAG -176 208 RF+
SYMBOL voltage -448 -48 R0
WINDOW 123 0 0 Left 0
WINDOW 39 0 0 Left 0
SYMATTR InstName V1
SYMATTR Value 5
SYMBOL cap -128 0 R0
SYMATTR InstName C1
SYMATTR Value 10”
SYMBOL cap 592 80 R0
SYMATTR InstName C3
SYMATTR Value 1”
SYMBOL voltage -448 368 R0
WINDOW 3 24 93 Left 2
WINDOW 123 0 0 Left 0
WINDOW 39 0 0 Left 0
SYMATTR Value PULSE(0 3.3 0 1n 1n 50n 500n)
SYMATTR InstName V2
SYMBOL voltage -688 800 R0
WINDOW 123 0 0 Left 0
WINDOW 39 24 124 Left 2
SYMATTR SpiceLine Rser=50
SYMATTR InstName V3
SYMATTR Value SINE(0 70u 2Meg)
SYMBOL res 720 64 R0
SYMATTR InstName R2
SYMATTR Value 100Meg
SYMBOL voltage -352 800 R0
WINDOW 123 0 0 Left 0
WINDOW 39 24 124 Left 2
SYMATTR SpiceLine Rser=50
SYMATTR InstName V4
SYMATTR Value SINE(0 70u 2k)
SYMBOL bv -48 784 R0
SYMATTR InstName B1
SYMATTR Value V=V(carrier)+V(audio)
SYMBOL Switches\\ADG719 176 160 R0
SYMATTR InstName U3
TEXT -336 -216 Left 2 !.lib EPCGaNLibrary.lib
TEXT -336 -136 Left 2 ;; 10 MHz clock, 50% duty, 1 ns rise/fall
TEXT -336 -176 Left 2 !.tran 0 5m 0 10u
